17
occocco
 C         17.3127027898       14.7491865079       15.5885330022
 H         17.0063631260       13.9210712504       16.2507537463
 H         18.1081350910       15.3341254886       16.0860874576
 O         17.7617089613       14.2609938320       14.3154189373
 H         18.4126690781       13.5647200224       14.4730279619
 C         13.8783316091       15.6512463958       14.6512997720
 H         13.6420419567       16.3631625577       15.4669668105
 H         14.0965198767       16.2292142013       13.7307978902
 O         15.0000001022       14.8465624112       15.0000002909
 C         16.1216688116       15.6512462992       15.3487004608
 H         15.9034806643       16.2292144825       16.2692021348
 H         16.3579583434       16.3631621795       14.5330331648
 C         12.6872976361       14.7491865768       14.4114671484
 H         11.8918654038       15.3341254628       13.9139124227
 H         12.9936375570       13.9210712868       13.7492465938
 O         12.2382910704       14.2609940119       15.6845811399
 H         11.5873307825       13.5647203531       15.5269720258